data_Fe3O4
_cell_length_a 8.3985
_cell_length_b 8.3985
_cell_length_c 8.3985
_cell_angle_alpha 90.
_cell_angle_beta 90.
_cell_angle_gamma 90.
_symmetry_space_group_name_H-M 'F d -3 m'
_symmetry_Int_Tables_number 227
loop_
_atom_type_symbol
Fe
O
loop_
_atom_site_label
_atom_site_type_symbol
_atom_site_symmetry_multiplicity
_atom_site_Wyckoff_symbol
_atom_site_fract_x
_atom_site_fract_y
_atom_site_fract_z
_atom_site_B_iso_or_equiv
_atom_site_occupancy
_atom_site_attached_hydrogens
Fe1 Fe 8 a 0 0 0 . 1. 0.1
Fe2 Fe 16 d 0.625 0.625 0.625 . 1. 0.1
O1 O 32 e 0.375 0.375 0.375 . 1. 0.1
